/*--------------------------------*- C++ -*----------------------------------*\
| =========                 |                                                 |
| \\      /  F ield         | OpenFOAM: The Open Source CFD Toolbox           |
|  \\    /   O peration     | Version:  2.3.0                                 |
|   \\  /    A nd           | Web:      www.OpenFOAM.org                      |
|    \\/     M anipulation  |                                                 |
\*---------------------------------------------------------------------------*/
FoamFile
{
    version     2.0;
    format      ascii;
    class       polyBoundaryMesh;
    location    "constant/polyMesh";
    object      boundary;
}
// * * * * * * * * * * * * * * * * * * * * * * * * * * * * * * * * * * * * * //

6
(
    PROFILE
    {
        type            wall;
        inGroups        1(wall);
        nFaces          117;
        startFace       28550;
    }
    INLET
    {
        type            patch;
        nFaces          188;
        startFace       28667;
    }
    OUTLET
    {
        type            patch;
        nFaces          63;
        startFace       28855;
    }
    EMPTY0
    {
        type            empty;
        inGroups        1(empty);
        nFaces          14415;
        startFace       28918;
    }
    EMPTY1
    {
        type            empty;
        inGroups        1(empty);
        nFaces          14415;
        startFace       43333;
    }
    procBoundary0to1
    {
        type            processor;
        inGroups        1(processor);
        nFaces          192;
        startFace       57748;
        matchTolerance  0.0001;
        transform       unknown;
        myProcNo        0;
        neighbProcNo    1;
    }
)

// ************************************************************************* //
