/*--------------------------------*- C++ -*----------------------------------*\
| =========                 |                                                 |
| \\      /  F ield         | OpenFOAM: The Open Source CFD Toolbox           |
|  \\    /   O peration     | Version:  2.3.0                                 |
|   \\  /    A nd           | Web:      www.OpenFOAM.org                      |
|    \\/     M anipulation  |                                                 |
\*---------------------------------------------------------------------------*/
FoamFile
{
    version     2.0;
    format      ascii;
    class       polyBoundaryMesh;
    location    "constant/polyMesh";
    object      boundary;
}
// * * * * * * * * * * * * * * * * * * * * * * * * * * * * * * * * * * * * * //

6
(
    PROFILE
    {
        type            wall;
        inGroups        1(wall);
        nFaces          69;
        startFace       28014;
    }
    INLET
    {
        type            patch;
        nFaces          156;
        startFace       28083;
    }
    OUTLET
    {
        type            patch;
        nFaces          103;
        startFace       28239;
    }
    EMPTY0
    {
        type            empty;
        inGroups        1(empty);
        nFaces          14137;
        startFace       28342;
    }
    EMPTY1
    {
        type            empty;
        inGroups        1(empty);
        nFaces          14137;
        startFace       42479;
    }
    procBoundary1to0
    {
        type            processor;
        inGroups        1(processor);
        nFaces          192;
        startFace       56616;
        matchTolerance  0.0001;
        transform       unknown;
        myProcNo        1;
        neighbProcNo    0;
    }
)

// ************************************************************************* //
